Circuit: * C:\Users\smrut\Documents\LTspiceXVII\Project\2StageOpAmp.asc

WARNING: Node N002 is floating.
WARNING: Node N004 is floating.

Direct Newton iteration for .op point succeeded.

Date: Sun Nov 14 23:44:48 2021
Total elapsed time: 0.097 seconds.

tnom = 27
temp = 27
method = modified trap
totiter = 2101
traniter = 2082
tranpoints = 1042
accept = 1042
rejected = 0
matrix size = 12
fillins = 2
solver = Normal
Matrix Compiler1: 660 bytes object code size  0.1/0.1/[0.1]
Matrix Compiler2: 1.05 KB object code size  0.1/0.1/[0.1]

